1
  -OEChem-08232509002D

 31 30  0     1  0  0  0  0  0999 V2000
    2.8660    0.7500    0.0000 O   0  0  0  0  0  0  0  0  0  0  0  0
    2.8660   -2.2500    0.0000 O   0  5  0  0  0  0  0  0  0  0  0  0
    2.0000   -0.7500    0.0000 O   0  0  0  0  0  0  0  0  0  0  0  0
    3.7321    2.2500    0.0000 O   0  0  0  0  0  0  0  0  0  0  0  0
    5.4641    0.2500    0.0000 N   0  3  0  0  0  0  0  0  0  0  0  0
    4.5981    0.7500    0.0000 C   0  0  0  0  0  0  0  0  0  0  0  0
    3.7321    0.2500    0.0000 C   0  0  3  0  0  0  0  0  0  0  0  0
    6.3301   -0.2500    0.0000 C   0  0  0  0  0  0  0  0  0  0  0  0
    5.9641    1.1160    0.0000 C   0  0  0  0  0  0  0  0  0  0  0  0
    4.9641   -0.6160    0.0000 C   0  0  0  0  0  0  0  0  0  0  0  0
    3.7321   -0.7500    0.0000 C   0  0  0  0  0  0  0  0  0  0  0  0
    2.8660   -1.2500    0.0000 C   0  0  0  0  0  0  0  0  0  0  0  0
    2.8660    1.7500    0.0000 C   0  0  0  0  0  0  0  0  0  0  0  0
    2.0000    2.2500    0.0000 C   0  0  0  0  0  0  0  0  0  0  0  0
    4.9966    1.2250    0.0000 H   0  0  0  0  0  0  0  0  0  0  0  0
    4.1996    1.2250    0.0000 H   0  0  0  0  0  0  0  0  0  0  0  0
    3.7321    0.8700    0.0000 H   0  0  0  0  0  0  0  0  0  0  0  0
    6.0201   -0.7869    0.0000 H   0  0  0  0  0  0  0  0  0  0  0  0
    6.8671   -0.5600    0.0000 H   0  0  0  0  0  0  0  0  0  0  0  0
    6.6401    0.2869    0.0000 H   0  0  0  0  0  0  0  0  0  0  0  0
    6.5010    0.8060    0.0000 H   0  0  0  0  0  0  0  0  0  0  0  0
    6.2741    1.6530    0.0000 H   0  0  0  0  0  0  0  0  0  0  0  0
    5.4272    1.4260    0.0000 H   0  0  0  0  0  0  0  0  0  0  0  0
    4.4272   -0.3060    0.0000 H   0  0  0  0  0  0  0  0  0  0  0  0
    4.6541   -1.1530    0.0000 H   0  0  0  0  0  0  0  0  0  0  0  0
    5.5010   -0.9260    0.0000 H   0  0  0  0  0  0  0  0  0  0  0  0
    3.9441   -1.3326    0.0000 H   0  0  0  0  0  0  0  0  0  0  0  0
    4.3426   -0.6423    0.0000 H   0  0  0  0  0  0  0  0  0  0  0  0
    2.3100    2.7869    0.0000 H   0  0  0  0  0  0  0  0  0  0  0  0
    1.4631    2.5600    0.0000 H   0  0  0  0  0  0  0  0  0  0  0  0
    1.6900    1.7131    0.0000 H   0  0  0  0  0  0  0  0  0  0  0  0
  1  7  1  0  0  0  0
  1 13  1  0  0  0  0
  2 12  1  0  0  0  0
  3 12  2  0  0  0  0
  4 13  2  0  0  0  0
  5  6  1  0  0  0  0
  5  8  1  0  0  0  0
  5  9  1  0  0  0  0
  5 10  1  0  0  0  0
  6  7  1  0  0  0  0
  6 15  1  0  0  0  0
  6 16  1  0  0  0  0
  7 11  1  0  0  0  0
  7 17  1  0  0  0  0
  8 18  1  0  0  0  0
  8 19  1  0  0  0  0
  8 20  1  0  0  0  0
  9 21  1  0  0  0  0
  9 22  1  0  0  0  0
  9 23  1  0  0  0  0
 10 24  1  0  0  0  0
 10 25  1  0  0  0  0
 10 26  1  0  0  0  0
 11 12  1  0  0  0  0
 11 27  1  0  0  0  0
 11 28  1  0  0  0  0
 13 14  1  0  0  0  0
 14 29  1  0  0  0  0
 14 30  1  0  0  0  0
 14 31  1  0  0  0  0
M  CHG  2   2  -1   5   1
M  END
> <PUBCHEM_COMPOUND_CID>
1

> <PUBCHEM_COMPOUND_CANONICALIZED>
1

> <PUBCHEM_CACTVS_COMPLEXITY>
214

> <PUBCHEM_CACTVS_HBOND_ACCEPTOR>
4

> <PUBCHEM_CACTVS_HBOND_DONOR>
0

> <PUBCHEM_CACTVS_ROTATABLE_BOND>
5

> <PUBCHEM_CACTVS_SUBSKEYS>
AAADceByOAAAAAAAAAAAAAAAAAAAAAAAAAAAAAAAAAAAAAAAAAAAHgAAAAAACBThgAYCCAMABAAIAACQCAAAAAAAAAAAAAEIAAACABQAgAAHAAAFIAAQAAAkAAAAAAAAAAAAAAAAAAAAAAAAAAAAAAAAAA==

> <PUBCHEM_IUPAC_OPENEYE_NAME>
3-acetoxy-4-(trimethylammonio)butanoate

> <PUBCHEM_IUPAC_CAS_NAME>
3-acetyloxy-4-(trimethylammonio)butanoate

> <PUBCHEM_IUPAC_NAME_MARKUP>
3-acetyloxy-4-(trimethylazaniumyl)butanoate

> <PUBCHEM_IUPAC_NAME>
3-acetyloxy-4-(trimethylazaniumyl)butanoate

> <PUBCHEM_IUPAC_SYSTEMATIC_NAME>
3-acetyloxy-4-(trimethylazaniumyl)butanoate

> <PUBCHEM_IUPAC_TRADITIONAL_NAME>
3-acetoxy-4-(trimethylammonio)butyrate

> <PUBCHEM_IUPAC_INCHI>
InChI=1S/C9H17NO4/c1-7(11)14-8(5-9(12)13)6-10(2,3)4/h8H,5-6H2,1-4H3

> <PUBCHEM_IUPAC_INCHIKEY>
RDHQFKQIGNGIED-UHFFFAOYSA-N

> <PUBCHEM_XLOGP3_AA>
0.4

> <PUBCHEM_EXACT_MASS>
203.11575802

> <PUBCHEM_MOLECULAR_FORMULA>
C9H17NO4

> <PUBCHEM_MOLECULAR_WEIGHT>
203.24

> <PUBCHEM_SMILES>
CC(=O)OC(CC(=O)[O-])C[N+](C)(C)C

> <PUBCHEM_CONNECTIVITY_SMILES>
CC(=O)OC(CC(=O)[O-])C[N+](C)(C)C

> <PUBCHEM_CACTVS_TPSA>
66.4

> <PUBCHEM_MONOISOTOPIC_WEIGHT>
203.11575802

> <PUBCHEM_TOTAL_CHARGE>
0

> <PUBCHEM_HEAVY_ATOM_COUNT>
14

> <PUBCHEM_ATOM_DEF_STEREO_COUNT>
0

> <PUBCHEM_ATOM_UDEF_STEREO_COUNT>
1

> <PUBCHEM_BOND_DEF_STEREO_COUNT>
0

> <PUBCHEM_BOND_UDEF_STEREO_COUNT>
0

> <PUBCHEM_ISOTOPIC_ATOM_COUNT>
0

> <PUBCHEM_COMPONENT_COUNT>
1

> <PUBCHEM_CACTVS_TAUTO_COUNT>
-1

> <PUBCHEM_COORDINATE_TYPE>
1
5
255

> <PUBCHEM_BONDANNOTATIONS>
7  11  3

$$$$
2
  -OEChem-08232509002D

 32 31  0     1  0  0  0  0  0999 V2000
    4.2690   -0.7500    0.0000 O   0  0  0  0  0  0  0  0  0  0  0  0
    2.5369    2.2500    0.0000 O   0  0  0  0  0  0  0  0  0  0  0  0
    4.2690    2.2500    0.0000 O   0  0  0  0  0  0  0  0  0  0  0  0
    2.5369   -0.7500    0.0000 O   0  0  0  0  0  0  0  0  0  0  0  0
    6.0010    0.2500    0.0000 N   0  3  0  0  0  0  0  0  0  0  0  0
    5.1350    0.7500    0.0000 C   0  0  0  0  0  0  0  0  0  0  0  0
    4.2690    0.2500    0.0000 C   0  0  3  0  0  0  0  0  0  0  0  0
    6.8671   -0.2500    0.0000 C   0  0  0  0  0  0  0  0  0  0  0  0
    6.5010    1.1160    0.0000 C   0  0  0  0  0  0  0  0  0  0  0  0
    5.5010   -0.6160    0.0000 C   0  0  0  0  0  0  0  0  0  0  0  0
    3.4030    0.7500    0.0000 C   0  0  0  0  0  0  0  0  0  0  0  0
    3.4030    1.7500    0.0000 C   0  0  0  0  0  0  0  0  0  0  0  0
    3.4030   -1.2500    0.0000 C   0  0  0  0  0  0  0  0  0  0  0  0
    3.4030   -2.2500    0.0000 C   0  0  0  0  0  0  0  0  0  0  0  0
    5.5335    1.2250    0.0000 H   0  0  0  0  0  0  0  0  0  0  0  0
    4.7365    1.2250    0.0000 H   0  0  0  0  0  0  0  0  0  0  0  0
    4.8059   -0.0600    0.0000 H   0  0  0  0  0  0  0  0  0  0  0  0
    6.5571   -0.7869    0.0000 H   0  0  0  0  0  0  0  0  0  0  0  0
    7.4040   -0.5600    0.0000 H   0  0  0  0  0  0  0  0  0  0  0  0
    7.1771    0.2869    0.0000 H   0  0  0  0  0  0  0  0  0  0  0  0
    7.0380    0.8060    0.0000 H   0  0  0  0  0  0  0  0  0  0  0  0
    6.8110    1.6530    0.0000 H   0  0  0  0  0  0  0  0  0  0  0  0
    5.9641    1.4260    0.0000 H   0  0  0  0  0  0  0  0  0  0  0  0
    4.9641   -0.3060    0.0000 H   0  0  0  0  0  0  0  0  0  0  0  0
    5.1910   -1.1530    0.0000 H   0  0  0  0  0  0  0  0  0  0  0  0
    6.0380   -0.9260    0.0000 H   0  0  0  0  0  0  0  0  0  0  0  0
    2.7924    0.8577    0.0000 H   0  0  0  0  0  0  0  0  0  0  0  0
    3.1909    0.1674    0.0000 H   0  0  0  0  0  0  0  0  0  0  0  0
    2.7830   -2.2500    0.0000 H   0  0  0  0  0  0  0  0  0  0  0  0
    3.4030   -2.8700    0.0000 H   0  0  0  0  0  0  0  0  0  0  0  0
    4.0230   -2.2500    0.0000 H   0  0  0  0  0  0  0  0  0  0  0  0
    2.0000    1.9400    0.0000 H   0  0  0  0  0  0  0  0  0  0  0  0
  1  7  1  0  0  0  0
  1 13  1  0  0  0  0
  2 12  1  0  0  0  0
  2 32  1  0  0  0  0
  3 12  2  0  0  0  0
  4 13  2  0  0  0  0
  5  6  1  0  0  0  0
  5  8  1  0  0  0  0
  5  9  1  0  0  0  0
  5 10  1  0  0  0  0
  6  7  1  0  0  0  0
  6 15  1  0  0  0  0
  6 16  1  0  0  0  0
  7 11  1  0  0  0  0
  7 17  1  0  0  0  0
  8 18  1  0  0  0  0
  8 19  1  0  0  0  0
  8 20  1  0  0  0  0
  9 21  1  0  0  0  0
  9 22  1  0  0  0  0
  9 23  1  0  0  0  0
 10 24  1  0  0  0  0
 10 25  1  0  0  0  0
 10 26  1  0  0  0  0
 11 12  1  0  0  0  0
 11 27  1  0  0  0  0
 11 28  1  0  0  0  0
 13 14  1  0  0  0  0
 14 29  1  0  0  0  0
 14 30  1  0  0  0  0
 14 31  1  0  0  0  0
M  CHG  1   5   1
M  END
> <PUBCHEM_COMPOUND_CID>
2

> <PUBCHEM_COMPOUND_CANONICALIZED>
1

> <PUBCHEM_CACTVS_COMPLEXITY>
219

> <PUBCHEM_CACTVS_HBOND_ACCEPTOR>
4

> <PUBCHEM_CACTVS_HBOND_DONOR>
1

> <PUBCHEM_CACTVS_ROTATABLE_BOND>
6

> <PUBCHEM_CACTVS_SUBSKEYS>
AAADceByOAAAAAAAAAAAAAAAAAAAAAAAAAAAAAAAAAAAAAAAAAAAHgAACAAACBThgAYCCAMABgAIAACQCAAAAAAAAAAAAAEIAAACABQAgAAHQAAFIAAQAAAkAAAAAAAAAAAAAAAAAAAAAAAAAAAAAAAAAA==

> <PUBCHEM_IUPAC_OPENEYE_NAME>
(2-acetoxy-3-carboxy-propyl)-trimethyl-ammonium

> <PUBCHEM_IUPAC_CAS_NAME>
(2-acetyloxy-3-carboxypropyl)-trimethylammonium

> <PUBCHEM_IUPAC_NAME_MARKUP>
(2-acetyloxy-3-carboxypropyl)-trimethylazanium

> <PUBCHEM_IUPAC_NAME>
(2-acetyloxy-3-carboxypropyl)-trimethylazanium

> <PUBCHEM_IUPAC_SYSTEMATIC_NAME>
(2-acetyloxy-4-oxidanyl-4-oxidanylidene-butyl)-trimethyl-azanium

> <PUBCHEM_IUPAC_TRADITIONAL_NAME>
(2-acetoxy-3-carboxy-propyl)-trimethyl-ammonium

> <PUBCHEM_IUPAC_INCHI>
InChI=1S/C9H17NO4/c1-7(11)14-8(5-9(12)13)6-10(2,3)4/h8H,5-6H2,1-4H3/p+1

> <PUBCHEM_IUPAC_INCHIKEY>
RDHQFKQIGNGIED-UHFFFAOYSA-O

> <PUBCHEM_XLOGP3_AA>
-0.3

> <PUBCHEM_EXACT_MASS>
204.12358306

> <PUBCHEM_MOLECULAR_FORMULA>
C9H18NO4+

> <PUBCHEM_MOLECULAR_WEIGHT>
204.24

> <PUBCHEM_SMILES>
CC(=O)OC(CC(=O)O)C[N+](C)(C)C

> <PUBCHEM_CONNECTIVITY_SMILES>
CC(=O)OC(CC(=O)O)C[N+](C)(C)C

> <PUBCHEM_CACTVS_TPSA>
63.6

> <PUBCHEM_MONOISOTOPIC_WEIGHT>
204.12358306

> <PUBCHEM_TOTAL_CHARGE>
1

> <PUBCHEM_HEAVY_ATOM_COUNT>
14

> <PUBCHEM_ATOM_DEF_STEREO_COUNT>
0

> <PUBCHEM_ATOM_UDEF_STEREO_COUNT>
1

> <PUBCHEM_BOND_DEF_STEREO_COUNT>
0

> <PUBCHEM_BOND_UDEF_STEREO_COUNT>
0

> <PUBCHEM_ISOTOPIC_ATOM_COUNT>
0

> <PUBCHEM_COMPONENT_COUNT>
1

> <PUBCHEM_CACTVS_TAUTO_COUNT>
-1

> <PUBCHEM_COORDINATE_TYPE>
1
5
255

> <PUBCHEM_BONDANNOTATIONS>
7  11  3

$$$$
3
  -OEChem-08232509002D

 19 19  0     1  0  0  0  0  0999 V2000
    5.1350    1.3450    0.0000 O   0  0  0  0  0  0  0  0  0  0  0  0
    6.8671    0.3450    0.0000 O   0  0  0  0  0  0  0  0  0  0  0  0
    2.5369   -0.1550    0.0000 O   0  0  0  0  0  0  0  0  0  0  0  0
    3.4030    1.3450    0.0000 O   0  0  0  0  0  0  0  0  0  0  0  0
    5.1350    0.3450    0.0000 C   0  0  3  0  0  0  0  0  0  0  0  0
    6.0010   -0.1550    0.0000 C   0  0  3  0  0  0  0  0  0  0  0  0
    4.2690   -0.1550    0.0000 C   0  0  0  0  0  0  0  0  0  0  0  0
    6.0010   -1.1550    0.0000 C   0  0  0  0  0  0  0  0  0  0  0  0
    4.2690   -1.1550    0.0000 C   0  0  0  0  0  0  0  0  0  0  0  0
    5.1350   -1.6550    0.0000 C   0  0  0  0  0  0  0  0  0  0  0  0
    3.4030    0.3450    0.0000 C   0  0  0  0  0  0  0  0  0  0  0  0
    5.8711    0.7700    0.0000 H   0  0  0  0  0  0  0  0  0  0  0  0
    6.7372   -0.5800    0.0000 H   0  0  0  0  0  0  0  0  0  0  0  0
    6.5380   -1.4650    0.0000 H   0  0  0  0  0  0  0  0  0  0  0  0
    3.7321   -1.4650    0.0000 H   0  0  0  0  0  0  0  0  0  0  0  0
    5.1350   -2.2750    0.0000 H   0  0  0  0  0  0  0  0  0  0  0  0
    5.6720    1.6550    0.0000 H   0  0  0  0  0  0  0  0  0  0  0  0
    7.4040    0.0350    0.0000 H   0  0  0  0  0  0  0  0  0  0  0  0
    2.0000    0.1550    0.0000 H   0  0  0  0  0  0  0  0  0  0  0  0
  1  5  1  0  0  0  0
  1 17  1  0  0  0  0
  2  6  1  0  0  0  0
  2 18  1  0  0  0  0
  3 11  1  0  0  0  0
  3 19  1  0  0  0  0
  4 11  2  0  0  0  0
  5  6  1  0  0  0  0
  5  7  1  0  0  0  0
  5 12  1  0  0  0  0
  6  8  1  0  0  0  0
  6 13  1  0  0  0  0
  7  9  2  0  0  0  0
  7 11  1  0  0  0  0
  8 10  2  0  0  0  0
  8 14  1  0  0  0  0
  9 10  1  0  0  0  0
  9 15  1  0  0  0  0
 10 16  1  0  0  0  0
M  END
> <PUBCHEM_COMPOUND_CID>
3

> <PUBCHEM_COMPOUND_CANONICALIZED>
1

> <PUBCHEM_CACTVS_COMPLEXITY>
229

> <PUBCHEM_CACTVS_HBOND_ACCEPTOR>
4

> <PUBCHEM_CACTVS_HBOND_DONOR>
3

> <PUBCHEM_CACTVS_ROTATABLE_BOND>
1

> <PUBCHEM_CACTVS_SUBSKEYS>
AAADccBgOAAAAAAAAAAAAAAAAAAAAAAAAAAgAAAAAAAAAAAAAAAAGgAACAAADBSggAIACAAAAgCIAiDSCAAAAAAgAAAICAEAAEgJFBYAAQAAUAAF4AAJkYLKAAAAAAAAAAAAAAAAAAAAAAAAAAAAAAAAAA==

> <PUBCHEM_IUPAC_OPENEYE_NAME>
5,6-dihydroxycyclohexa-1,3-diene-1-carboxylic acid

> <PUBCHEM_IUPAC_CAS_NAME>
5,6-dihydroxy-1-cyclohexa-1,3-dienecarboxylic acid

> <PUBCHEM_IUPAC_NAME_MARKUP>
5,6-dihydroxycyclohexa-1,3-diene-1-carboxylic acid

> <PUBCHEM_IUPAC_NAME>
5,6-dihydroxycyclohexa-1,3-diene-1-carboxylic acid

> <PUBCHEM_IUPAC_SYSTEMATIC_NAME>
5,6-bis(oxidanyl)cyclohexa-1,3-diene-1-carboxylic acid

> <PUBCHEM_IUPAC_TRADITIONAL_NAME>
5,6-dihydroxycyclohexa-1,3-diene-1-carboxylic acid

> <PUBCHEM_IUPAC_INCHI>
InChI=1S/C7H8O4/c8-5-3-1-2-4(6(5)9)7(10)11/h1-3,5-6,8-9H,(H,10,11)

> <PUBCHEM_IUPAC_INCHIKEY>
INCSWYKICIYAHB-UHFFFAOYSA-N

> <PUBCHEM_XLOGP3_AA>
-0.3

> <PUBCHEM_EXACT_MASS>
156.04225873

> <PUBCHEM_MOLECULAR_FORMULA>
C7H8O4

> <PUBCHEM_MOLECULAR_WEIGHT>
156.14

> <PUBCHEM_SMILES>
C1=CC(C(C(=C1)C(=O)O)O)O

> <PUBCHEM_CONNECTIVITY_SMILES>
C1=CC(C(C(=C1)C(=O)O)O)O

> <PUBCHEM_CACTVS_TPSA>
77.8

> <PUBCHEM_MONOISOTOPIC_WEIGHT>
156.04225873

> <PUBCHEM_TOTAL_CHARGE>
0

> <PUBCHEM_HEAVY_ATOM_COUNT>
11

> <PUBCHEM_ATOM_DEF_STEREO_COUNT>
0

> <PUBCHEM_ATOM_UDEF_STEREO_COUNT>
2

> <PUBCHEM_BOND_DEF_STEREO_COUNT>
0

> <PUBCHEM_BOND_UDEF_STEREO_COUNT>
0

> <PUBCHEM_ISOTOPIC_ATOM_COUNT>
0

> <PUBCHEM_COMPONENT_COUNT>
1

> <PUBCHEM_CACTVS_TAUTO_COUNT>
-1

> <PUBCHEM_COORDINATE_TYPE>
1
5
255

> <PUBCHEM_BONDANNOTATIONS>
5  12  3
6  13  3

$$$$
4
  -OEChem-08232509002D

 14 13  0     1  0  0  0  0  0999 V2000
    2.5369    0.7500    0.0000 O   0  0  0  0  0  0  0  0  0  0  0  0
    5.1350    0.2500    0.0000 N   0  0  0  0  0  0  0  0  0  0  0  0
    3.4030    0.2500    0.0000 C   0  0  3  0  0  0  0  0  0  0  0  0
    4.2690    0.7500    0.0000 C   0  0  0  0  0  0  0  0  0  0  0  0
    3.4030   -0.7500    0.0000 C   0  0  0  0  0  0  0  0  0  0  0  0
    3.4030    0.8700    0.0000 H   0  0  0  0  0  0  0  0  0  0  0  0
    4.6675    1.2250    0.0000 H   0  0  0  0  0  0  0  0  0  0  0  0
    3.8705    1.2250    0.0000 H   0  0  0  0  0  0  0  0  0  0  0  0
    2.7830   -0.7500    0.0000 H   0  0  0  0  0  0  0  0  0  0  0  0
    3.4030   -1.3700    0.0000 H   0  0  0  0  0  0  0  0  0  0  0  0
    4.0230   -0.7500    0.0000 H   0  0  0  0  0  0  0  0  0  0  0  0
    5.6720    0.5600    0.0000 H   0  0  0  0  0  0  0  0  0  0  0  0
    5.1350   -0.3700    0.0000 H   0  0  0  0  0  0  0  0  0  0  0  0
    2.0000    0.4400    0.0000 H   0  0  0  0  0  0  0  0  0  0  0  0
  1  3  1  0  0  0  0
  1 14  1  0  0  0  0
  2  4  1  0  0  0  0
  2 12  1  0  0  0  0
  2 13  1  0  0  0  0
  3  4  1  0  0  0  0
  3  5  1  0  0  0  0
  3  6  1  0  0  0  0
  4  7  1  0  0  0  0
  4  8  1  0  0  0  0
  5  9  1  0  0  0  0
  5 10  1  0  0  0  0
  5 11  1  0  0  0  0
M  END
> <PUBCHEM_COMPOUND_CID>
4

> <PUBCHEM_COMPOUND_CANONICALIZED>
1

> <PUBCHEM_CACTVS_COMPLEXITY>
22.9

> <PUBCHEM_CACTVS_HBOND_ACCEPTOR>
2

> <PUBCHEM_CACTVS_HBOND_DONOR>
2

> <PUBCHEM_CACTVS_ROTATABLE_BOND>
1

> <PUBCHEM_CACTVS_SUBSKEYS>
AAADccBCIAAAAAAAAAAAAAAAAAAAAAAAAAAAAAAAAAAAAAAAAAAAHgAQCAAACBThgAYCAABAAgAAAAAAAAAAAAAAAAAAAIAAAAACEAAAAAAAAAAAEAAAAAAAAAAAAAAAAAAAAAAAAAAAAAAAAAAAAAAAAA==

> <PUBCHEM_IUPAC_OPENEYE_NAME>
1-aminopropan-2-ol

> <PUBCHEM_IUPAC_CAS_NAME>
1-amino-2-propanol

> <PUBCHEM_IUPAC_NAME_MARKUP>
1-aminopropan-2-ol

> <PUBCHEM_IUPAC_NAME>
1-aminopropan-2-ol

> <PUBCHEM_IUPAC_SYSTEMATIC_NAME>
1-azanylpropan-2-ol

> <PUBCHEM_IUPAC_TRADITIONAL_NAME>
1-aminopropan-2-ol

> <PUBCHEM_IUPAC_INCHI>
InChI=1S/C3H9NO/c1-3(5)2-4/h3,5H,2,4H2,1H3

> <PUBCHEM_IUPAC_INCHIKEY>
HXKKHQJGJAFBHI-UHFFFAOYSA-N

> <PUBCHEM_XLOGP3>
-1

> <PUBCHEM_EXACT_MASS>
75.068413911

> <PUBCHEM_MOLECULAR_FORMULA>
C3H9NO

> <PUBCHEM_MOLECULAR_WEIGHT>
75.11

> <PUBCHEM_SMILES>
CC(CN)O

> <PUBCHEM_CONNECTIVITY_SMILES>
CC(CN)O

> <PUBCHEM_CACTVS_TPSA>
46.3

> <PUBCHEM_MONOISOTOPIC_WEIGHT>
75.068413911

> <PUBCHEM_TOTAL_CHARGE>
0

> <PUBCHEM_HEAVY_ATOM_COUNT>
5

> <PUBCHEM_ATOM_DEF_STEREO_COUNT>
0

> <PUBCHEM_ATOM_UDEF_STEREO_COUNT>
1

> <PUBCHEM_BOND_DEF_STEREO_COUNT>
0

> <PUBCHEM_BOND_UDEF_STEREO_COUNT>
0

> <PUBCHEM_ISOTOPIC_ATOM_COUNT>
0

> <PUBCHEM_COMPONENT_COUNT>
1

> <PUBCHEM_CACTVS_TAUTO_COUNT>
-1

> <PUBCHEM_COORDINATE_TYPE>
1
5
255

> <PUBCHEM_BONDANNOTATIONS>
3  1  3

$$$$
5
  -OEChem-08232509002D

 18 17  0     0  0  0  0  0  0999 V2000
    3.4030   -0.3170    0.0000 P   0  0  0  0  0  0  0  0  0  0  0  0
    4.2690    0.1830    0.0000 O   0  0  0  0  0  0  0  0  0  0  0  0
    2.5369   -0.8170    0.0000 O   0  0  0  0  0  0  0  0  0  0  0  0
    2.9030    0.5490    0.0000 O   0  0  0  0  0  0  0  0  0  0  0  0
    6.0010    1.1830    0.0000 O   0  0  0  0  0  0  0  0  0  0  0  0
    3.9030   -1.1830    0.0000 O   0  0  0  0  0  0  0  0  0  0  0  0
    7.7331    0.1830    0.0000 N   0  0  0  0  0  0  0  0  0  0  0  0
    5.1350   -0.3170    0.0000 C   0  0  0  0  0  0  0  0  0  0  0  0
    6.0010    0.1830    0.0000 C   0  0  0  0  0  0  0  0  0  0  0  0
    6.8671   -0.3170    0.0000 C   0  0  0  0  0  0  0  0  0  0  0  0
    4.7365   -0.7919    0.0000 H   0  0  0  0  0  0  0  0  0  0  0  0
    5.5335   -0.7919    0.0000 H   0  0  0  0  0  0  0  0  0  0  0  0
    6.4685   -0.7919    0.0000 H   0  0  0  0  0  0  0  0  0  0  0  0
    7.2656   -0.7919    0.0000 H   0  0  0  0  0  0  0  0  0  0  0  0
    8.2700   -0.1270    0.0000 H   0  0  0  0  0  0  0  0  0  0  0  0
    7.7331    0.8030    0.0000 H   0  0  0  0  0  0  0  0  0  0  0  0
    2.0000   -0.5070    0.0000 H   0  0  0  0  0  0  0  0  0  0  0  0
    3.2130    1.0860    0.0000 H   0  0  0  0  0  0  0  0  0  0  0  0
  1  2  1  0  0  0  0
  1  3  1  0  0  0  0
  1  4  1  0  0  0  0
  1  6  2  0  0  0  0
  2  8  1  0  0  0  0
  3 17  1  0  0  0  0
  4 18  1  0  0  0  0
  5  9  2  0  0  0  0
  7 10  1  0  0  0  0
  7 15  1  0  0  0  0
  7 16  1  0  0  0  0
  8  9  1  0  0  0  0
  8 11  1  0  0  0  0
  8 12  1  0  0  0  0
  9 10  1  0  0  0  0
 10 13  1  0  0  0  0
 10 14  1  0  0  0  0
M  END
> <PUBCHEM_COMPOUND_CID>
5

> <PUBCHEM_COMPOUND_CANONICALIZED>
1

> <PUBCHEM_CACTVS_COMPLEXITY>
162

> <PUBCHEM_CACTVS_HBOND_ACCEPTOR>
6

> <PUBCHEM_CACTVS_HBOND_DONOR>
3

> <PUBCHEM_CACTVS_ROTATABLE_BOND>
4

> <PUBCHEM_CACTVS_SUBSKEYS>
AAADccBCOAIAAAAAAAAAAAAAAAAAAAAAAAAAAAAAAAAAAAAAAAAAHgAQCCAACAThgAYAAABAARAIQIAQAIIAAAAAAAAAAIDAAAAAAAAAAAAAAAACAAAAAAAAAAAAAAAAAAAAAAAAAAAAAAAAAAAAAAAAAA==

> <PUBCHEM_IUPAC_OPENEYE_NAME>
(3-amino-2-oxo-propyl) dihydrogen phosphate

> <PUBCHEM_IUPAC_CAS_NAME>
(3-amino-2-oxopropyl) dihydrogen phosphate

> <PUBCHEM_IUPAC_NAME_MARKUP>
(3-amino-2-oxopropyl) dihydrogen phosphate

> <PUBCHEM_IUPAC_NAME>
(3-amino-2-oxopropyl) dihydrogen phosphate

> <PUBCHEM_IUPAC_SYSTEMATIC_NAME>
(3-azanyl-2-oxidanylidene-propyl) dihydrogen phosphate

> <PUBCHEM_IUPAC_TRADITIONAL_NAME>
(3-amino-2-keto-propyl) dihydrogen phosphate

> <PUBCHEM_IUPAC_INCHI>
InChI=1S/C3H8NO5P/c4-1-3(5)2-9-10(6,7)8/h1-2,4H2,(H2,6,7,8)

> <PUBCHEM_IUPAC_INCHIKEY>
HIQNVODXENYOFK-UHFFFAOYSA-N

> <PUBCHEM_XLOGP3_AA>
-5

> <PUBCHEM_EXACT_MASS>
169.01400935

> <PUBCHEM_MOLECULAR_FORMULA>
C3H8NO5P

> <PUBCHEM_MOLECULAR_WEIGHT>
169.07

> <PUBCHEM_SMILES>
C(C(=O)COP(=O)(O)O)N

> <PUBCHEM_CONNECTIVITY_SMILES>
C(C(=O)COP(=O)(O)O)N

> <PUBCHEM_CACTVS_TPSA>
110

> <PUBCHEM_MONOISOTOPIC_WEIGHT>
169.01400935

> <PUBCHEM_TOTAL_CHARGE>
0

> <PUBCHEM_HEAVY_ATOM_COUNT>
10

> <PUBCHEM_ATOM_DEF_STEREO_COUNT>
0

> <PUBCHEM_ATOM_UDEF_STEREO_COUNT>
0

> <PUBCHEM_BOND_DEF_STEREO_COUNT>
0

> <PUBCHEM_BOND_UDEF_STEREO_COUNT>
0

> <PUBCHEM_ISOTOPIC_ATOM_COUNT>
0

> <PUBCHEM_COMPONENT_COUNT>
1

> <PUBCHEM_CACTVS_TAUTO_COUNT>
-1

> <PUBCHEM_COORDINATE_TYPE>
1
5
255

$$$$
6
  -OEChem-08232509002D

 16 16  0     0  0  0  0  0  0999 V2000
    2.0000    0.7500    0.0000 Cl  0  0  0  0  0  0  0  0  0  0  0  0
    4.5981    2.2500    0.0000 O   0  5  0  0  0  0  0  0  0  0  0  0
    2.8660    2.2500    0.0000 O   0  0  0  0  0  0  0  0  0  0  0  0
    5.4641   -2.2500    0.0000 O   0  5  0  0  0  0  0  0  0  0  0  0
    6.3301   -0.7500    0.0000 O   0  0  0  0  0  0  0  0  0  0  0  0
    3.7321    1.7500    0.0000 N   0  3  0  0  0  0  0  0  0  0  0  0
    5.4641   -1.2500    0.0000 N   0  3  0  0  0  0  0  0  0  0  0  0
    3.7321    0.7500    0.0000 C   0  0  0  0  0  0  0  0  0  0  0  0
    4.5981   -0.7500    0.0000 C   0  0  0  0  0  0  0  0  0  0  0  0
    4.5981    0.2500    0.0000 C   0  0  0  0  0  0  0  0  0  0  0  0
    2.8660    0.2500    0.0000 C   0  0  0  0  0  0  0  0  0  0  0  0
    3.7321   -1.2500    0.0000 C   0  0  0  0  0  0  0  0  0  0  0  0
    2.8660   -0.7500    0.0000 C   0  0  0  0  0  0  0  0  0  0  0  0
    5.1350    0.5600    0.0000 H   0  0  0  0  0  0  0  0  0  0  0  0
    3.7321   -1.8700    0.0000 H   0  0  0  0  0  0  0  0  0  0  0  0
    2.3291   -1.0600    0.0000 H   0  0  0  0  0  0  0  0  0  0  0  0
  1 11  1  0  0  0  0
  2  6  1  0  0  0  0
  3  6  2  0  0  0  0
  4  7  1  0  0  0  0
  5  7  2  0  0  0  0
  6  8  1  0  0  0  0
  7  9  1  0  0  0  0
  8 10  1  0  0  0  0
  8 11  2  0  0  0  0
  9 10  2  0  0  0  0
  9 12  1  0  0  0  0
 10 14  1  0  0  0  0
 11 13  1  0  0  0  0
 12 13  2  0  0  0  0
 12 15  1  0  0  0  0
 13 16  1  0  0  0  0
M  CHG  4   2  -1   4  -1   6   1   7   1
M  END
> <PUBCHEM_COMPOUND_CID>
6

> <PUBCHEM_COMPOUND_CANONICALIZED>
1

> <PUBCHEM_CACTVS_COMPLEXITY>
224

> <PUBCHEM_CACTVS_HBOND_ACCEPTOR>
4

> <PUBCHEM_CACTVS_HBOND_DONOR>
0

> <PUBCHEM_CACTVS_ROTATABLE_BOND>
0

> <PUBCHEM_CACTVS_SUBSKEYS>
AAADcQBjOAAEAAAAAAAAAAAAAAAAAAAAAAAwAAAAAAAAAAABAAAAHAIEAAAACAqBECAwwIAQQACBACRCQwCCAAAgBwAoiAAAZooIICKB09GAIABggAAIyAcQAAAAAABAAAQAABAAAIAACAAAIAAAAAAAAA==

> <PUBCHEM_IUPAC_OPENEYE_NAME>
1-chloro-2,4-dinitro-benzene

> <PUBCHEM_IUPAC_CAS_NAME>
1-chloro-2,4-dinitrobenzene

> <PUBCHEM_IUPAC_NAME_MARKUP>
1-chloro-2,4-dinitrobenzene

> <PUBCHEM_IUPAC_NAME>
1-chloro-2,4-dinitrobenzene

> <PUBCHEM_IUPAC_SYSTEMATIC_NAME>
1-chloranyl-2,4-dinitro-benzene

> <PUBCHEM_IUPAC_TRADITIONAL_NAME>
1-chloro-2,4-dinitro-benzene

> <PUBCHEM_IUPAC_INCHI>
InChI=1S/C6H3ClN2O4/c7-5-2-1-4(8(10)11)3-6(5)9(12)13/h1-3H

> <PUBCHEM_IUPAC_INCHIKEY>
VYZAHLCBVHPDDF-UHFFFAOYSA-N

> <PUBCHEM_XLOGP3>
2.3

> <PUBCHEM_EXACT_MASS>
201.9781343

> <PUBCHEM_MOLECULAR_FORMULA>
C6H3ClN2O4

> <PUBCHEM_MOLECULAR_WEIGHT>
202.55

> <PUBCHEM_SMILES>
C1=CC(=C(C=C1[N+](=O)[O-])[N+](=O)[O-])Cl

> <PUBCHEM_CONNECTIVITY_SMILES>
C1=CC(=C(C=C1[N+](=O)[O-])[N+](=O)[O-])Cl

> <PUBCHEM_CACTVS_TPSA>
91.6

> <PUBCHEM_MONOISOTOPIC_WEIGHT>
201.9781343

> <PUBCHEM_TOTAL_CHARGE>
0

> <PUBCHEM_HEAVY_ATOM_COUNT>
13

> <PUBCHEM_ATOM_DEF_STEREO_COUNT>
0

> <PUBCHEM_ATOM_UDEF_STEREO_COUNT>
0

> <PUBCHEM_BOND_DEF_STEREO_COUNT>
0

> <PUBCHEM_BOND_UDEF_STEREO_COUNT>
0

> <PUBCHEM_ISOTOPIC_ATOM_COUNT>
0

> <PUBCHEM_COMPONENT_COUNT>
1

> <PUBCHEM_CACTVS_TAUTO_COUNT>
-1

> <PUBCHEM_COORDINATE_TYPE>
1
5
255

> <PUBCHEM_BONDANNOTATIONS>
11  13  8
12  13  8
8  10  8
8  11  8
9  10  8
9  12  8

$$$$
7
  -OEChem-08232509002D

 21 22  0     0  0  0  0  0  0999 V2000
    4.6783   -0.9790    0.0000 N   0  0  0  0  0  0  0  0  0  0  0  0
    4.6783    0.6305    0.0000 N   0  0  0  0  0  0  0  0  0  0  0  0
    2.8660   -1.1743    0.0000 N   0  0  0  0  0  0  0  0  0  0  0  0
    2.0000    0.3257    0.0000 N   0  0  0  0  0  0  0  0  0  0  0  0
    2.8660    1.8257    0.0000 N   0  0  0  0  0  0  0  0  0  0  0  0
    3.7321   -0.6743    0.0000 C   0  0  0  0  0  0  0  0  0  0  0  0
    4.9889   -1.9295    0.0000 C   0  0  0  0  0  0  0  0  0  0  0  0
    3.7321    0.3257    0.0000 C   0  0  0  0  0  0  0  0  0  0  0  0
    5.2619   -0.1743    0.0000 C   0  0  0  0  0  0  0  0  0  0  0  0
    5.9674   -2.1357    0.0000 C   0  0  0  0  0  0  0  0  0  0  0  0
    2.8660    0.8257    0.0000 C   0  0  0  0  0  0  0  0  0  0  0  0
    2.0000   -0.6743    0.0000 C   0  0  0  0  0  0  0  0  0  0  0  0
    4.3751   -2.0169    0.0000 H   0  0  0  0  0  0  0  0  0  0  0  0
    4.9684   -2.5492    0.0000 H   0  0  0  0  0  0  0  0  0  0  0  0
    5.8819   -0.1743    0.0000 H   0  0  0  0  0  0  0  0  0  0  0  0
    5.8396   -2.7424    0.0000 H   0  0  0  0  0  0  0  0  0  0  0  0
    6.5741   -2.2636    0.0000 H   0  0  0  0  0  0  0  0  0  0  0  0
    6.0953   -1.5291    0.0000 H   0  0  0  0  0  0  0  0  0  0  0  0
    1.4631   -0.9843    0.0000 H   0  0  0  0  0  0  0  0  0  0  0  0
    2.3291    2.1357    0.0000 H   0  0  0  0  0  0  0  0  0  0  0  0
    3.4030    2.1357    0.0000 H   0  0  0  0  0  0  0  0  0  0  0  0
  1  6  1  0  0  0  0
  1  7  1  0  0  0  0
  1  9  1  0  0  0  0
  2  8  1  0  0  0  0
  2  9  2  0  0  0  0
  3  6  2  0  0  0  0
  3 12  1  0  0  0  0
  4 11  1  0  0  0  0
  4 12  2  0  0  0  0
  5 11  1  0  0  0  0
  5 20  1  0  0  0  0
  5 21  1  0  0  0  0
  6  8  1  0  0  0  0
  7 10  1  0  0  0  0
  7 13  1  0  0  0  0
  7 14  1  0  0  0  0
  8 11  2  0  0  0  0
  9 15  1  0  0  0  0
 10 16  1  0  0  0  0
 10 17  1  0  0  0  0
 10 18  1  0  0  0  0
 12 19  1  0  0  0  0
M  END
> <PUBCHEM_COMPOUND_CID>
7

> <PUBCHEM_COMPOUND_CANONICALIZED>
1

> <PUBCHEM_CACTVS_COMPLEXITY>
162

> <PUBCHEM_CACTVS_HBOND_ACCEPTOR>
4

> <PUBCHEM_CACTVS_HBOND_DONOR>
1

> <PUBCHEM_CACTVS_ROTATABLE_BOND>
1

> <PUBCHEM_CACTVS_SUBSKEYS>
AAADccBjgAAAAAAAAAAAAAAAAAAAAWAAAAAsAAAAAAAAAFgB+AAAHAAQAAAACAjBFwQH8L9MEACgAQZhZACAgC0REKABUCAoVBCASABASEAUBAgIAALAACAAAAAAAAAAAAAAAAAAAAAAAAAAAAAAAAAAAA==

> <PUBCHEM_IUPAC_OPENEYE_NAME>
9-ethylpurin-6-amine

> <PUBCHEM_IUPAC_CAS_NAME>
9-ethyl-6-purinamine

> <PUBCHEM_IUPAC_NAME_MARKUP>
9-ethylpurin-6-amine

> <PUBCHEM_IUPAC_NAME>
9-ethylpurin-6-amine

> <PUBCHEM_IUPAC_SYSTEMATIC_NAME>
9-ethylpurin-6-amine

> <PUBCHEM_IUPAC_TRADITIONAL_NAME>
(9-ethylpurin-6-yl)amine

> <PUBCHEM_IUPAC_INCHI>
InChI=1S/C7H9N5/c1-2-12-4-11-5-6(8)9-3-10-7(5)12/h3-4H,2H2,1H3,(H2,8,9,10)

> <PUBCHEM_IUPAC_INCHIKEY>
MUIPLRMGAXZWSQ-UHFFFAOYSA-N

> <PUBCHEM_XLOGP3>
0.2

> <PUBCHEM_EXACT_MASS>
163.08579531

> <PUBCHEM_MOLECULAR_FORMULA>
C7H9N5

> <PUBCHEM_MOLECULAR_WEIGHT>
163.18

> <PUBCHEM_SMILES>
CCN1C=NC2=C(N=CN=C21)N

> <PUBCHEM_CONNECTIVITY_SMILES>
CCN1C=NC2=C(N=CN=C21)N

> <PUBCHEM_CACTVS_TPSA>
69.6

> <PUBCHEM_MONOISOTOPIC_WEIGHT>
163.08579531

> <PUBCHEM_TOTAL_CHARGE>
0

> <PUBCHEM_HEAVY_ATOM_COUNT>
12

> <PUBCHEM_ATOM_DEF_STEREO_COUNT>
0

> <PUBCHEM_ATOM_UDEF_STEREO_COUNT>
0

> <PUBCHEM_BOND_DEF_STEREO_COUNT>
0

> <PUBCHEM_BOND_UDEF_STEREO_COUNT>
0

> <PUBCHEM_ISOTOPIC_ATOM_COUNT>
0

> <PUBCHEM_COMPONENT_COUNT>
1

> <PUBCHEM_CACTVS_TAUTO_COUNT>
-1

> <PUBCHEM_COORDINATE_TYPE>
1
5
255

> <PUBCHEM_BONDANNOTATIONS>
1  6  8
1  9  8
2  8  8
2  9  8
3  12  8
3  6  8
4  11  8
4  12  8
6  8  8
8  11  8

